<?xml version="1.0"?>

<!-- generated on 10/23/14 16:54:05 by SUMO netgen Version 0.12.3
<?xml version="1.0" encoding="iso-8859-1"?>

<configuration xmlns:xsi="http://www.w3.org/2001/XMLSchema-instance" xsi:noNamespaceSchemaLocation="http://sumo.sf.net/xsd/netgenConfiguration.xsd">

    <grid_network>
        <grid-net value="true"/>
        <grid-number value="5"/>
        <grid-length value="250"/>
    </grid_network>

    <output>
        <output-file value="C:\Users\mikelei\Desktop\sumo-0.12.3\mikelei\gpsr_test\test.net.xml"/>
    </output>

    <report>
        <verbose value="true"/>
    </report>

</configuration>
-->

<net>

   <location netOffset="0.00,0.00" convBoundary="0.00,0.00,1000.00,1000.00" origBoundary="0.00,0.00,1000.00,1000.00" projParameter="!"/>

   <edge id=":0/0_0" function="internal">
      <lanes>
         <lane id=":0/0_0_0" depart="0" maxspeed="13.90" length="7.90" shape="-1.65,3.25 -1.34,1.11 -0.43,-0.43 1.11,-1.34 3.25,-1.65"/>
      </lanes>
   </edge>
   <edge id=":0/0_1" function="internal">
      <lanes>
         <lane id=":0/0_1_0" depart="0" maxspeed="13.90" length="4.82" shape="-1.65,3.25 -0.83,2.01 -0.00,1.60 0.82,2.01 1.65,3.25"/>
      </lanes>
   </edge>
   <edge id=":0/0_2" function="internal">
      <lanes>
         <lane id=":0/0_2_0" depart="0" maxspeed="13.90" length="2.58" shape="3.25,1.65 2.55,1.75 2.05,2.05 1.75,2.55 1.65,3.25"/>
      </lanes>
   </edge>
   <edge id=":0/0_3" function="internal">
      <lanes>
         <lane id=":0/0_3_0" depart="0" maxspeed="13.90" length="4.82" shape="3.25,1.65 2.01,0.82 1.60,-0.00 2.01,-0.83 3.25,-1.65"/>
      </lanes>
   </edge>
   <edge id=":0/1_0" function="internal">
      <lanes>
         <lane id=":0/1_0_0" depart="0" maxspeed="13.90" length="9.50" shape="-1.65,254.75 -1.65,245.25"/>
      </lanes>
   </edge>
   <edge id=":0/1_1" function="internal">
      <lanes>
         <lane id=":0/1_1_0" depart="0" maxspeed="13.90" length="10.32" shape="-1.65,254.75 -1.25,251.95 -0.05,249.95 1.95,248.75 4.75,248.35"/>
      </lanes>
   </edge>
   <edge id=":0/1_2" function="internal">
      <lanes>
         <lane id=":0/1_2_0" depart="0" maxspeed="13.90" length="4.82" shape="-1.65,254.75 -0.83,253.51 -0.00,253.10 0.82,253.51 1.65,254.75"/>
      </lanes>
   </edge>
   <edge id=":0/1_3" function="internal">
      <lanes>
         <lane id=":0/1_3_0" depart="0" maxspeed="13.90" length="5.00" shape="4.75,251.65 3.39,251.84 2.43,252.43 1.84,253.39 1.65,254.75"/>
      </lanes>
   </edge>
   <edge id=":0/1_4" function="internal">
      <lanes>
         <lane id=":0/1_4_0" depart="0" maxspeed="13.90" length="10.32" shape="4.75,251.65 1.95,251.25 -0.05,250.05 -1.25,248.05 -1.65,245.25"/>
      </lanes>
   </edge>
   <edge id=":0/1_5" function="internal">
      <lanes>
         <lane id=":0/1_5_0" depart="0" maxspeed="13.90" length="4.82" shape="4.75,251.65 3.51,250.83 3.10,250.00 3.51,249.18 4.75,248.35"/>
      </lanes>
   </edge>
   <edge id=":0/1_6" function="internal">
      <lanes>
         <lane id=":0/1_6_0" depart="0" maxspeed="13.90" length="5.00" shape="1.65,245.25 1.84,246.61 2.43,247.58 3.39,248.16 4.75,248.35"/>
      </lanes>
   </edge>
   <edge id=":0/1_7" function="internal">
      <lanes>
         <lane id=":0/1_7_0" depart="0" maxspeed="13.90" length="9.50" shape="1.65,245.25 1.65,254.75"/>
      </lanes>
   </edge>
   <edge id=":0/1_8" function="internal">
      <lanes>
         <lane id=":0/1_8_0" depart="0" maxspeed="13.90" length="4.82" shape="1.65,245.25 0.83,246.49 0.00,246.90 -0.82,246.49 -1.65,245.25"/>
      </lanes>
   </edge>
   <edge id=":0/2_0" function="internal">
      <lanes>
         <lane id=":0/2_0_0" depart="0" maxspeed="13.90" length="9.50" shape="-1.65,504.75 -1.65,495.25"/>
      </lanes>
   </edge>
   <edge id=":0/2_1" function="internal">
      <lanes>
         <lane id=":0/2_1_0" depart="0" maxspeed="13.90" length="10.32" shape="-1.65,504.75 -1.25,501.95 -0.05,499.95 1.95,498.75 4.75,498.35"/>
      </lanes>
   </edge>
   <edge id=":0/2_2" function="internal">
      <lanes>
         <lane id=":0/2_2_0" depart="0" maxspeed="13.90" length="4.82" shape="-1.65,504.75 -0.83,503.51 -0.00,503.10 0.82,503.51 1.65,504.75"/>
      </lanes>
   </edge>
   <edge id=":0/2_3" function="internal">
      <lanes>
         <lane id=":0/2_3_0" depart="0" maxspeed="13.90" length="5.00" shape="4.75,501.65 3.39,501.84 2.43,502.43 1.84,503.39 1.65,504.75"/>
      </lanes>
   </edge>
   <edge id=":0/2_4" function="internal">
      <lanes>
         <lane id=":0/2_4_0" depart="0" maxspeed="13.90" length="10.32" shape="4.75,501.65 1.95,501.25 -0.05,500.05 -1.25,498.05 -1.65,495.25"/>
      </lanes>
   </edge>
   <edge id=":0/2_5" function="internal">
      <lanes>
         <lane id=":0/2_5_0" depart="0" maxspeed="13.90" length="4.82" shape="4.75,501.65 3.51,500.83 3.10,500.00 3.51,499.18 4.75,498.35"/>
      </lanes>
   </edge>
   <edge id=":0/2_6" function="internal">
      <lanes>
         <lane id=":0/2_6_0" depart="0" maxspeed="13.90" length="5.00" shape="1.65,495.25 1.84,496.61 2.43,497.58 3.39,498.16 4.75,498.35"/>
      </lanes>
   </edge>
   <edge id=":0/2_7" function="internal">
      <lanes>
         <lane id=":0/2_7_0" depart="0" maxspeed="13.90" length="9.50" shape="1.65,495.25 1.65,504.75"/>
      </lanes>
   </edge>
   <edge id=":0/2_8" function="internal">
      <lanes>
         <lane id=":0/2_8_0" depart="0" maxspeed="13.90" length="4.82" shape="1.65,495.25 0.83,496.49 0.00,496.90 -0.82,496.49 -1.65,495.25"/>
      </lanes>
   </edge>
   <edge id=":0/3_0" function="internal">
      <lanes>
         <lane id=":0/3_0_0" depart="0" maxspeed="13.90" length="9.50" shape="-1.65,754.75 -1.65,745.25"/>
      </lanes>
   </edge>
   <edge id=":0/3_1" function="internal">
      <lanes>
         <lane id=":0/3_1_0" depart="0" maxspeed="13.90" length="10.32" shape="-1.65,754.75 -1.25,751.95 -0.05,749.95 1.95,748.75 4.75,748.35"/>
      </lanes>
   </edge>
   <edge id=":0/3_2" function="internal">
      <lanes>
         <lane id=":0/3_2_0" depart="0" maxspeed="13.90" length="4.82" shape="-1.65,754.75 -0.83,753.51 -0.00,753.10 0.82,753.51 1.65,754.75"/>
      </lanes>
   </edge>
   <edge id=":0/3_3" function="internal">
      <lanes>
         <lane id=":0/3_3_0" depart="0" maxspeed="13.90" length="5.00" shape="4.75,751.65 3.39,751.84 2.43,752.42 1.84,753.39 1.65,754.75"/>
      </lanes>
   </edge>
   <edge id=":0/3_4" function="internal">
      <lanes>
         <lane id=":0/3_4_0" depart="0" maxspeed="13.90" length="10.32" shape="4.75,751.65 1.95,751.25 -0.05,750.05 -1.25,748.05 -1.65,745.25"/>
      </lanes>
   </edge>
   <edge id=":0/3_5" function="internal">
      <lanes>
         <lane id=":0/3_5_0" depart="0" maxspeed="13.90" length="4.82" shape="4.75,751.65 3.51,750.83 3.10,750.00 3.51,749.18 4.75,748.35"/>
      </lanes>
   </edge>
   <edge id=":0/3_6" function="internal">
      <lanes>
         <lane id=":0/3_6_0" depart="0" maxspeed="13.90" length="5.00" shape="1.65,745.25 1.84,746.61 2.43,747.57 3.39,748.16 4.75,748.35"/>
      </lanes>
   </edge>
   <edge id=":0/3_7" function="internal">
      <lanes>
         <lane id=":0/3_7_0" depart="0" maxspeed="13.90" length="9.50" shape="1.65,745.25 1.65,754.75"/>
      </lanes>
   </edge>
   <edge id=":0/3_8" function="internal">
      <lanes>
         <lane id=":0/3_8_0" depart="0" maxspeed="13.90" length="4.82" shape="1.65,745.25 0.83,746.49 0.00,746.90 -0.82,746.49 -1.65,745.25"/>
      </lanes>
   </edge>
   <edge id=":0/4_0" function="internal">
      <lanes>
         <lane id=":0/4_0_0" depart="0" maxspeed="13.90" length="7.90" shape="3.25,1001.65 1.11,1001.34 -0.43,1000.43 -1.34,998.89 -1.65,996.75"/>
      </lanes>
   </edge>
   <edge id=":0/4_1" function="internal">
      <lanes>
         <lane id=":0/4_1_0" depart="0" maxspeed="13.90" length="4.82" shape="3.25,1001.65 2.01,1000.83 1.60,1000.00 2.01,999.18 3.25,998.35"/>
      </lanes>
   </edge>
   <edge id=":0/4_2" function="internal">
      <lanes>
         <lane id=":0/4_2_0" depart="0" maxspeed="13.90" length="2.58" shape="1.65,996.75 1.75,997.45 2.05,997.95 2.55,998.25 3.25,998.35"/>
      </lanes>
   </edge>
   <edge id=":0/4_3" function="internal">
      <lanes>
         <lane id=":0/4_3_0" depart="0" maxspeed="13.90" length="4.82" shape="1.65,996.75 0.83,997.99 0.00,998.40 -0.82,997.99 -1.65,996.75"/>
      </lanes>
   </edge>
   <edge id=":1/0_0" function="internal">
      <lanes>
         <lane id=":1/0_0_0" depart="0" maxspeed="13.90" length="5.00" shape="248.35,4.75 248.16,3.39 247.57,2.43 246.61,1.84 245.25,1.65"/>
      </lanes>
   </edge>
   <edge id=":1/0_1" function="internal">
      <lanes>
         <lane id=":1/0_1_0" depart="0" maxspeed="13.90" length="10.32" shape="248.35,4.75 248.75,1.95 249.95,-0.05 251.95,-1.25 254.75,-1.65"/>
      </lanes>
   </edge>
   <edge id=":1/0_2" function="internal">
      <lanes>
         <lane id=":1/0_2_0" depart="0" maxspeed="13.90" length="4.82" shape="248.35,4.75 249.18,3.51 250.00,3.10 250.82,3.51 251.65,4.75"/>
      </lanes>
   </edge>
   <edge id=":1/0_3" function="internal">
      <lanes>
         <lane id=":1/0_3_0" depart="0" maxspeed="13.90" length="5.00" shape="254.75,1.65 253.39,1.84 252.43,2.42 251.84,3.39 251.65,4.75"/>
      </lanes>
   </edge>
   <edge id=":1/0_4" function="internal">
      <lanes>
         <lane id=":1/0_4_0" depart="0" maxspeed="13.90" length="9.50" shape="254.75,1.65 245.25,1.65"/>
      </lanes>
   </edge>
   <edge id=":1/0_5" function="internal">
      <lanes>
         <lane id=":1/0_5_0" depart="0" maxspeed="13.90" length="4.82" shape="254.75,1.65 253.51,0.83 253.10,0.00 253.51,-0.82 254.75,-1.65"/>
      </lanes>
   </edge>
   <edge id=":1/0_6" function="internal">
      <lanes>
         <lane id=":1/0_6_0" depart="0" maxspeed="13.90" length="9.50" shape="245.25,-1.65 254.75,-1.65"/>
      </lanes>
   </edge>
   <edge id=":1/0_7" function="internal">
      <lanes>
         <lane id=":1/0_7_0" depart="0" maxspeed="13.90" length="10.32" shape="245.25,-1.65 248.05,-1.25 250.05,-0.05 251.25,1.95 251.65,4.75"/>
      </lanes>
   </edge>
   <edge id=":1/0_8" function="internal">
      <lanes>
         <lane id=":1/0_8_0" depart="0" maxspeed="13.90" length="4.82" shape="245.25,-1.65 246.49,-0.83 246.90,-0.00 246.49,0.82 245.25,1.65"/>
      </lanes>
   </edge>
   <edge id=":1/1_0" function="internal">
      <lanes>
         <lane id=":1/1_0_0" depart="0" maxspeed="13.90" length="5.00" shape="248.35,254.75 248.16,253.39 247.57,252.42 246.61,251.84 245.25,251.65"/>
      </lanes>
   </edge>
   <edge id=":1/1_1" function="internal">
      <lanes>
         <lane id=":1/1_1_0" depart="0" maxspeed="13.90" length="9.50" shape="248.35,254.75 248.35,245.25"/>
      </lanes>
   </edge>
   <edge id=":1/1_2" function="internal">
      <lanes>
         <lane id=":1/1_2_0" depart="0" maxspeed="13.90" length="10.32" shape="248.35,254.75 248.75,251.95 249.95,249.95 251.95,248.75 254.75,248.35"/>
      </lanes>
   </edge>
   <edge id=":1/1_3" function="internal">
      <lanes>
         <lane id=":1/1_3_0" depart="0" maxspeed="13.90" length="4.82" shape="248.35,254.75 249.18,253.51 250.00,253.10 250.82,253.51 251.65,254.75"/>
      </lanes>
   </edge>
   <edge id=":1/1_4" function="internal">
      <lanes>
         <lane id=":1/1_4_0" depart="0" maxspeed="13.90" length="5.00" shape="254.75,251.65 253.39,251.84 252.43,252.43 251.84,253.39 251.65,254.75"/>
      </lanes>
   </edge>
   <edge id=":1/1_5" function="internal">
      <lanes>
         <lane id=":1/1_5_0" depart="0" maxspeed="13.90" length="9.50" shape="254.75,251.65 245.25,251.65"/>
      </lanes>
   </edge>
   <edge id=":1/1_6" function="internal">
      <lanes>
         <lane id=":1/1_6_0" depart="0" maxspeed="13.90" length="10.32" shape="254.75,251.65 251.95,251.25 249.95,250.05 248.75,248.05 248.35,245.25"/>
      </lanes>
   </edge>
   <edge id=":1/1_7" function="internal">
      <lanes>
         <lane id=":1/1_7_0" depart="0" maxspeed="13.90" length="4.82" shape="254.75,251.65 253.51,250.83 253.10,250.00 253.51,249.18 254.75,248.35"/>
      </lanes>
   </edge>
   <edge id=":1/1_8" function="internal">
      <lanes>
         <lane id=":1/1_8_0" depart="0" maxspeed="13.90" length="5.00" shape="251.65,245.25 251.84,246.61 252.43,247.58 253.39,248.16 254.75,248.35"/>
      </lanes>
   </edge>
   <edge id=":1/1_9" function="internal">
      <lanes>
         <lane id=":1/1_9_0" depart="0" maxspeed="13.90" length="9.50" shape="251.65,245.25 251.65,254.75"/>
      </lanes>
   </edge>
   <edge id=":1/1_10" function="internal">
      <lanes>
         <lane id=":1/1_10_0" depart="0" maxspeed="13.90" length="10.32" shape="251.65,245.25 251.25,248.05 250.05,250.05 248.05,251.25 245.25,251.65"/>
      </lanes>
   </edge>
   <edge id=":1/1_11" function="internal">
      <lanes>
         <lane id=":1/1_11_0" depart="0" maxspeed="13.90" length="4.82" shape="251.65,245.25 250.82,246.49 250.00,246.90 249.18,246.49 248.35,245.25"/>
      </lanes>
   </edge>
   <edge id=":1/1_12" function="internal">
      <lanes>
         <lane id=":1/1_12_0" depart="0" maxspeed="13.90" length="5.00" shape="245.25,248.35 246.61,248.16 247.57,247.58 248.16,246.61 248.35,245.25"/>
      </lanes>
   </edge>
   <edge id=":1/1_13" function="internal">
      <lanes>
         <lane id=":1/1_13_0" depart="0" maxspeed="13.90" length="9.50" shape="245.25,248.35 254.75,248.35"/>
      </lanes>
   </edge>
   <edge id=":1/1_14" function="internal">
      <lanes>
         <lane id=":1/1_14_0" depart="0" maxspeed="13.90" length="10.32" shape="245.25,248.35 248.05,248.75 250.05,249.95 251.25,251.95 251.65,254.75"/>
      </lanes>
   </edge>
   <edge id=":1/1_15" function="internal">
      <lanes>
         <lane id=":1/1_15_0" depart="0" maxspeed="13.90" length="4.82" shape="245.25,248.35 246.49,249.17 246.90,250.00 246.49,250.82 245.25,251.65"/>
      </lanes>
   </edge>
   <edge id=":1/2_0" function="internal">
      <lanes>
         <lane id=":1/2_0_0" depart="0" maxspeed="13.90" length="5.00" shape="248.35,504.75 248.16,503.39 247.57,502.43 246.61,501.84 245.25,501.65"/>
      </lanes>
   </edge>
   <edge id=":1/2_1" function="internal">
      <lanes>
         <lane id=":1/2_1_0" depart="0" maxspeed="13.90" length="9.50" shape="248.35,504.75 248.35,495.25"/>
      </lanes>
   </edge>
   <edge id=":1/2_2" function="internal">
      <lanes>
         <lane id=":1/2_2_0" depart="0" maxspeed="13.90" length="10.32" shape="248.35,504.75 248.75,501.95 249.95,499.95 251.95,498.75 254.75,498.35"/>
      </lanes>
   </edge>
   <edge id=":1/2_3" function="internal">
      <lanes>
         <lane id=":1/2_3_0" depart="0" maxspeed="13.90" length="4.82" shape="248.35,504.75 249.18,503.51 250.00,503.10 250.82,503.51 251.65,504.75"/>
      </lanes>
   </edge>
   <edge id=":1/2_4" function="internal">
      <lanes>
         <lane id=":1/2_4_0" depart="0" maxspeed="13.90" length="5.00" shape="254.75,501.65 253.39,501.84 252.43,502.43 251.84,503.39 251.65,504.75"/>
      </lanes>
   </edge>
   <edge id=":1/2_5" function="internal">
      <lanes>
         <lane id=":1/2_5_0" depart="0" maxspeed="13.90" length="9.50" shape="254.75,501.65 245.25,501.65"/>
      </lanes>
   </edge>
   <edge id=":1/2_6" function="internal">
      <lanes>
         <lane id=":1/2_6_0" depart="0" maxspeed="13.90" length="10.32" shape="254.75,501.65 251.95,501.25 249.95,500.05 248.75,498.05 248.35,495.25"/>
      </lanes>
   </edge>
   <edge id=":1/2_7" function="internal">
      <lanes>
         <lane id=":1/2_7_0" depart="0" maxspeed="13.90" length="4.82" shape="254.75,501.65 253.51,500.83 253.10,500.00 253.51,499.18 254.75,498.35"/>
      </lanes>
   </edge>
   <edge id=":1/2_8" function="internal">
      <lanes>
         <lane id=":1/2_8_0" depart="0" maxspeed="13.90" length="5.00" shape="251.65,495.25 251.84,496.61 252.43,497.58 253.39,498.16 254.75,498.35"/>
      </lanes>
   </edge>
   <edge id=":1/2_9" function="internal">
      <lanes>
         <lane id=":1/2_9_0" depart="0" maxspeed="13.90" length="9.50" shape="251.65,495.25 251.65,504.75"/>
      </lanes>
   </edge>
   <edge id=":1/2_10" function="internal">
      <lanes>
         <lane id=":1/2_10_0" depart="0" maxspeed="13.90" length="10.32" shape="251.65,495.25 251.25,498.05 250.05,500.05 248.05,501.25 245.25,501.65"/>
      </lanes>
   </edge>
   <edge id=":1/2_11" function="internal">
      <lanes>
         <lane id=":1/2_11_0" depart="0" maxspeed="13.90" length="4.82" shape="251.65,495.25 250.82,496.49 250.00,496.90 249.18,496.49 248.35,495.25"/>
      </lanes>
   </edge>
   <edge id=":1/2_12" function="internal">
      <lanes>
         <lane id=":1/2_12_0" depart="0" maxspeed="13.90" length="5.00" shape="245.25,498.35 246.61,498.16 247.57,497.58 248.16,496.61 248.35,495.25"/>
      </lanes>
   </edge>
   <edge id=":1/2_13" function="internal">
      <lanes>
         <lane id=":1/2_13_0" depart="0" maxspeed="13.90" length="9.50" shape="245.25,498.35 254.75,498.35"/>
      </lanes>
   </edge>
   <edge id=":1/2_14" function="internal">
      <lanes>
         <lane id=":1/2_14_0" depart="0" maxspeed="13.90" length="10.32" shape="245.25,498.35 248.05,498.75 250.05,499.95 251.25,501.95 251.65,504.75"/>
      </lanes>
   </edge>
   <edge id=":1/2_15" function="internal">
      <lanes>
         <lane id=":1/2_15_0" depart="0" maxspeed="13.90" length="4.82" shape="245.25,498.35 246.49,499.17 246.90,500.00 246.49,500.82 245.25,501.65"/>
      </lanes>
   </edge>
   <edge id=":1/3_0" function="internal">
      <lanes>
         <lane id=":1/3_0_0" depart="0" maxspeed="13.90" length="5.00" shape="248.35,754.75 248.16,753.39 247.57,752.43 246.61,751.84 245.25,751.65"/>
      </lanes>
   </edge>
   <edge id=":1/3_1" function="internal">
      <lanes>
         <lane id=":1/3_1_0" depart="0" maxspeed="13.90" length="9.50" shape="248.35,754.75 248.35,745.25"/>
      </lanes>
   </edge>
   <edge id=":1/3_2" function="internal">
      <lanes>
         <lane id=":1/3_2_0" depart="0" maxspeed="13.90" length="10.32" shape="248.35,754.75 248.75,751.95 249.95,749.95 251.95,748.75 254.75,748.35"/>
      </lanes>
   </edge>
   <edge id=":1/3_3" function="internal">
      <lanes>
         <lane id=":1/3_3_0" depart="0" maxspeed="13.90" length="4.82" shape="248.35,754.75 249.18,753.51 250.00,753.10 250.82,753.51 251.65,754.75"/>
      </lanes>
   </edge>
   <edge id=":1/3_4" function="internal">
      <lanes>
         <lane id=":1/3_4_0" depart="0" maxspeed="13.90" length="5.00" shape="254.75,751.65 253.39,751.84 252.43,752.42 251.84,753.39 251.65,754.75"/>
      </lanes>
   </edge>
   <edge id=":1/3_5" function="internal">
      <lanes>
         <lane id=":1/3_5_0" depart="0" maxspeed="13.90" length="9.50" shape="254.75,751.65 245.25,751.65"/>
      </lanes>
   </edge>
   <edge id=":1/3_6" function="internal">
      <lanes>
         <lane id=":1/3_6_0" depart="0" maxspeed="13.90" length="10.32" shape="254.75,751.65 251.95,751.25 249.95,750.05 248.75,748.05 248.35,745.25"/>
      </lanes>
   </edge>
   <edge id=":1/3_7" function="internal">
      <lanes>
         <lane id=":1/3_7_0" depart="0" maxspeed="13.90" length="4.82" shape="254.75,751.65 253.51,750.83 253.10,750.00 253.51,749.18 254.75,748.35"/>
      </lanes>
   </edge>
   <edge id=":1/3_8" function="internal">
      <lanes>
         <lane id=":1/3_8_0" depart="0" maxspeed="13.90" length="5.00" shape="251.65,745.25 251.84,746.61 252.43,747.57 253.39,748.16 254.75,748.35"/>
      </lanes>
   </edge>
   <edge id=":1/3_9" function="internal">
      <lanes>
         <lane id=":1/3_9_0" depart="0" maxspeed="13.90" length="9.50" shape="251.65,745.25 251.65,754.75"/>
      </lanes>
   </edge>
   <edge id=":1/3_10" function="internal">
      <lanes>
         <lane id=":1/3_10_0" depart="0" maxspeed="13.90" length="10.32" shape="251.65,745.25 251.25,748.05 250.05,750.05 248.05,751.25 245.25,751.65"/>
      </lanes>
   </edge>
   <edge id=":1/3_11" function="internal">
      <lanes>
         <lane id=":1/3_11_0" depart="0" maxspeed="13.90" length="4.82" shape="251.65,745.25 250.82,746.49 250.00,746.90 249.18,746.49 248.35,745.25"/>
      </lanes>
   </edge>
   <edge id=":1/3_12" function="internal">
      <lanes>
         <lane id=":1/3_12_0" depart="0" maxspeed="13.90" length="5.00" shape="245.25,748.35 246.61,748.16 247.57,747.58 248.16,746.61 248.35,745.25"/>
      </lanes>
   </edge>
   <edge id=":1/3_13" function="internal">
      <lanes>
         <lane id=":1/3_13_0" depart="0" maxspeed="13.90" length="9.50" shape="245.25,748.35 254.75,748.35"/>
      </lanes>
   </edge>
   <edge id=":1/3_14" function="internal">
      <lanes>
         <lane id=":1/3_14_0" depart="0" maxspeed="13.90" length="10.32" shape="245.25,748.35 248.05,748.75 250.05,749.95 251.25,751.95 251.65,754.75"/>
      </lanes>
   </edge>
   <edge id=":1/3_15" function="internal">
      <lanes>
         <lane id=":1/3_15_0" depart="0" maxspeed="13.90" length="4.82" shape="245.25,748.35 246.49,749.17 246.90,750.00 246.49,750.82 245.25,751.65"/>
      </lanes>
   </edge>
   <edge id=":1/4_0" function="internal">
      <lanes>
         <lane id=":1/4_0_0" depart="0" maxspeed="13.90" length="9.50" shape="254.75,1001.65 245.25,1001.65"/>
      </lanes>
   </edge>
   <edge id=":1/4_1" function="internal">
      <lanes>
         <lane id=":1/4_1_0" depart="0" maxspeed="13.90" length="10.32" shape="254.75,1001.65 251.95,1001.25 249.95,1000.05 248.75,998.05 248.35,995.25"/>
      </lanes>
   </edge>
   <edge id=":1/4_2" function="internal">
      <lanes>
         <lane id=":1/4_2_0" depart="0" maxspeed="13.90" length="4.82" shape="254.75,1001.65 253.51,1000.83 253.10,1000.00 253.51,999.18 254.75,998.35"/>
      </lanes>
   </edge>
   <edge id=":1/4_3" function="internal">
      <lanes>
         <lane id=":1/4_3_0" depart="0" maxspeed="13.90" length="5.00" shape="251.65,995.25 251.84,996.61 252.43,997.57 253.39,998.16 254.75,998.35"/>
      </lanes>
   </edge>
   <edge id=":1/4_4" function="internal">
      <lanes>
         <lane id=":1/4_4_0" depart="0" maxspeed="13.90" length="10.32" shape="251.65,995.25 251.25,998.05 250.05,1000.05 248.05,1001.25 245.25,1001.65"/>
      </lanes>
   </edge>
   <edge id=":1/4_5" function="internal">
      <lanes>
         <lane id=":1/4_5_0" depart="0" maxspeed="13.90" length="4.82" shape="251.65,995.25 250.82,996.49 250.00,996.90 249.18,996.49 248.35,995.25"/>
      </lanes>
   </edge>
   <edge id=":1/4_6" function="internal">
      <lanes>
         <lane id=":1/4_6_0" depart="0" maxspeed="13.90" length="5.00" shape="245.25,998.35 246.61,998.16 247.57,997.58 248.16,996.61 248.35,995.25"/>
      </lanes>
   </edge>
   <edge id=":1/4_7" function="internal">
      <lanes>
         <lane id=":1/4_7_0" depart="0" maxspeed="13.90" length="9.50" shape="245.25,998.35 254.75,998.35"/>
      </lanes>
   </edge>
   <edge id=":1/4_8" function="internal">
      <lanes>
         <lane id=":1/4_8_0" depart="0" maxspeed="13.90" length="4.82" shape="245.25,998.35 246.49,999.17 246.90,1000.00 246.49,1000.82 245.25,1001.65"/>
      </lanes>
   </edge>
   <edge id=":2/0_0" function="internal">
      <lanes>
         <lane id=":2/0_0_0" depart="0" maxspeed="13.90" length="5.00" shape="498.35,4.75 498.16,3.39 497.57,2.43 496.61,1.84 495.25,1.65"/>
      </lanes>
   </edge>
   <edge id=":2/0_1" function="internal">
      <lanes>
         <lane id=":2/0_1_0" depart="0" maxspeed="13.90" length="10.32" shape="498.35,4.75 498.75,1.95 499.95,-0.05 501.95,-1.25 504.75,-1.65"/>
      </lanes>
   </edge>
   <edge id=":2/0_2" function="internal">
      <lanes>
         <lane id=":2/0_2_0" depart="0" maxspeed="13.90" length="4.82" shape="498.35,4.75 499.18,3.51 500.00,3.10 500.82,3.51 501.65,4.75"/>
      </lanes>
   </edge>
   <edge id=":2/0_3" function="internal">
      <lanes>
         <lane id=":2/0_3_0" depart="0" maxspeed="13.90" length="5.00" shape="504.75,1.65 503.39,1.84 502.43,2.42 501.84,3.39 501.65,4.75"/>
      </lanes>
   </edge>
   <edge id=":2/0_4" function="internal">
      <lanes>
         <lane id=":2/0_4_0" depart="0" maxspeed="13.90" length="9.50" shape="504.75,1.65 495.25,1.65"/>
      </lanes>
   </edge>
   <edge id=":2/0_5" function="internal">
      <lanes>
         <lane id=":2/0_5_0" depart="0" maxspeed="13.90" length="4.82" shape="504.75,1.65 503.51,0.83 503.10,0.00 503.51,-0.82 504.75,-1.65"/>
      </lanes>
   </edge>
   <edge id=":2/0_6" function="internal">
      <lanes>
         <lane id=":2/0_6_0" depart="0" maxspeed="13.90" length="9.50" shape="495.25,-1.65 504.75,-1.65"/>
      </lanes>
   </edge>
   <edge id=":2/0_7" function="internal">
      <lanes>
         <lane id=":2/0_7_0" depart="0" maxspeed="13.90" length="10.32" shape="495.25,-1.65 498.05,-1.25 500.05,-0.05 501.25,1.95 501.65,4.75"/>
      </lanes>
   </edge>
   <edge id=":2/0_8" function="internal">
      <lanes>
         <lane id=":2/0_8_0" depart="0" maxspeed="13.90" length="4.82" shape="495.25,-1.65 496.49,-0.83 496.90,-0.00 496.49,0.82 495.25,1.65"/>
      </lanes>
   </edge>
   <edge id=":2/1_0" function="internal">
      <lanes>
         <lane id=":2/1_0_0" depart="0" maxspeed="13.90" length="5.00" shape="498.35,254.75 498.16,253.39 497.57,252.42 496.61,251.84 495.25,251.65"/>
      </lanes>
   </edge>
   <edge id=":2/1_1" function="internal">
      <lanes>
         <lane id=":2/1_1_0" depart="0" maxspeed="13.90" length="9.50" shape="498.35,254.75 498.35,245.25"/>
      </lanes>
   </edge>
   <edge id=":2/1_2" function="internal">
      <lanes>
         <lane id=":2/1_2_0" depart="0" maxspeed="13.90" length="10.32" shape="498.35,254.75 498.75,251.95 499.95,249.95 501.95,248.75 504.75,248.35"/>
      </lanes>
   </edge>
   <edge id=":2/1_3" function="internal">
      <lanes>
         <lane id=":2/1_3_0" depart="0" maxspeed="13.90" length="4.82" shape="498.35,254.75 499.18,253.51 500.00,253.10 500.82,253.51 501.65,254.75"/>
      </lanes>
   </edge>
   <edge id=":2/1_4" function="internal">
      <lanes>
         <lane id=":2/1_4_0" depart="0" maxspeed="13.90" length="5.00" shape="504.75,251.65 503.39,251.84 502.43,252.43 501.84,253.39 501.65,254.75"/>
      </lanes>
   </edge>
   <edge id=":2/1_5" function="internal">
      <lanes>
         <lane id=":2/1_5_0" depart="0" maxspeed="13.90" length="9.50" shape="504.75,251.65 495.25,251.65"/>
      </lanes>
   </edge>
   <edge id=":2/1_6" function="internal">
      <lanes>
         <lane id=":2/1_6_0" depart="0" maxspeed="13.90" length="10.32" shape="504.75,251.65 501.95,251.25 499.95,250.05 498.75,248.05 498.35,245.25"/>
      </lanes>
   </edge>
   <edge id=":2/1_7" function="internal">
      <lanes>
         <lane id=":2/1_7_0" depart="0" maxspeed="13.90" length="4.82" shape="504.75,251.65 503.51,250.83 503.10,250.00 503.51,249.18 504.75,248.35"/>
      </lanes>
   </edge>
   <edge id=":2/1_8" function="internal">
      <lanes>
         <lane id=":2/1_8_0" depart="0" maxspeed="13.90" length="5.00" shape="501.65,245.25 501.84,246.61 502.43,247.58 503.39,248.16 504.75,248.35"/>
      </lanes>
   </edge>
   <edge id=":2/1_9" function="internal">
      <lanes>
         <lane id=":2/1_9_0" depart="0" maxspeed="13.90" length="9.50" shape="501.65,245.25 501.65,254.75"/>
      </lanes>
   </edge>
   <edge id=":2/1_10" function="internal">
      <lanes>
         <lane id=":2/1_10_0" depart="0" maxspeed="13.90" length="10.32" shape="501.65,245.25 501.25,248.05 500.05,250.05 498.05,251.25 495.25,251.65"/>
      </lanes>
   </edge>
   <edge id=":2/1_11" function="internal">
      <lanes>
         <lane id=":2/1_11_0" depart="0" maxspeed="13.90" length="4.82" shape="501.65,245.25 500.82,246.49 500.00,246.90 499.18,246.49 498.35,245.25"/>
      </lanes>
   </edge>
   <edge id=":2/1_12" function="internal">
      <lanes>
         <lane id=":2/1_12_0" depart="0" maxspeed="13.90" length="5.00" shape="495.25,248.35 496.61,248.16 497.57,247.58 498.16,246.61 498.35,245.25"/>
      </lanes>
   </edge>
   <edge id=":2/1_13" function="internal">
      <lanes>
         <lane id=":2/1_13_0" depart="0" maxspeed="13.90" length="9.50" shape="495.25,248.35 504.75,248.35"/>
      </lanes>
   </edge>
   <edge id=":2/1_14" function="internal">
      <lanes>
         <lane id=":2/1_14_0" depart="0" maxspeed="13.90" length="10.32" shape="495.25,248.35 498.05,248.75 500.05,249.95 501.25,251.95 501.65,254.75"/>
      </lanes>
   </edge>
   <edge id=":2/1_15" function="internal">
      <lanes>
         <lane id=":2/1_15_0" depart="0" maxspeed="13.90" length="4.82" shape="495.25,248.35 496.49,249.17 496.90,250.00 496.49,250.82 495.25,251.65"/>
      </lanes>
   </edge>
   <edge id=":2/2_0" function="internal">
      <lanes>
         <lane id=":2/2_0_0" depart="0" maxspeed="13.90" length="5.00" shape="498.35,504.75 498.16,503.39 497.57,502.43 496.61,501.84 495.25,501.65"/>
      </lanes>
   </edge>
   <edge id=":2/2_1" function="internal">
      <lanes>
         <lane id=":2/2_1_0" depart="0" maxspeed="13.90" length="9.50" shape="498.35,504.75 498.35,495.25"/>
      </lanes>
   </edge>
   <edge id=":2/2_2" function="internal">
      <lanes>
         <lane id=":2/2_2_0" depart="0" maxspeed="13.90" length="10.32" shape="498.35,504.75 498.75,501.95 499.95,499.95 501.95,498.75 504.75,498.35"/>
      </lanes>
   </edge>